functions/OneTimeScripts/validationAgainstOpenDSS_MATLAB/ieee123_1ph_created/results/powers23.csv
Element, Terminal, P(kW), Q(kvar),  P_Normal, Q_Normal, P_Emergency, Q_Emergency
"Line.L115"             ,   1,       587.2,       242.6,         0.0,         0.0,         0.0,         0.0
"Line.L115"             ,   2,      -585.6,      -239.3
"Line.L1"               ,   1,         4.8,         2.4,         0.0,         0.0,         0.0,         0.0
"Line.L1"               ,   2,        -4.8,        -2.4
"Line.L2"               ,   1,        24.0,        12.0,         0.0,         0.0,         0.0,         0.0
"Line.L2"               ,   2,       -24.0,       -12.0
"Line.L3"               ,   1,       547.2,       220.1,         0.0,         0.0,         0.0,         0.0
"Line.L3"               ,   2,      -546.2,      -218.0
"Line.L4"               ,   1,         9.6,         4.8,         0.0,         0.0,         0.0,         0.0
"Line.L4"               ,   2,        -9.6,        -4.8
"Line.L5"               ,   1,        14.4,         7.2,         0.0,         0.0,         0.0,         0.0
"Line.L5"               ,   2,       -14.4,        -7.2
"Line.L6"               ,   1,         9.6,         4.8,         0.0,         0.0,         0.0,         0.0
"Line.L6"               ,   2,        -9.6,        -4.8
"Line.L7"               ,   1,       541.4,       215.6,         0.0,         0.0,         0.0,         0.0
"Line.L7"               ,   2,      -540.7,      -214.2
"Line.L8"               ,   1,         4.8,         2.4,         0.0,         0.0,         0.0,         0.0
"Line.L8"               ,   2,        -4.8,        -2.4
"Line.L9"               ,   1,        10.7,        12.0,         0.0,         0.0,         0.0,         0.0
"Line.L9"               ,   2,       -10.7,       -12.0
"Line.L10"              ,   1,       525.2,       199.8,         0.0,         0.0,         0.0,         0.0
"Line.L10"              ,   2,      -524.3,      -197.8
"Line.L11"              ,   1,        14.4,         7.2,         0.0,         0.0,         0.0,         0.0
"Line.L11"              ,   2,       -14.4,        -7.2
"Line.L12"              ,   1,        24.0,        12.0,         0.0,         0.0,         0.0,         0.0
"Line.L12"              ,   2,       -24.0,       -12.0
"Line.L13"              ,   1,       185.1,       157.5,         0.0,         0.0,         0.0,         0.0
"Line.L13"              ,   2,      -184.6,      -156.5
"Line.L14"              ,   1,         9.6,         4.8,         0.0,         0.0,         0.0,         0.0
"Line.L14"              ,   2,        -9.6,        -4.8
"Line.L15"              ,   1,         4.8,         2.4,         0.0,         0.0,         0.0,         0.0
"Line.L15"              ,   2,        -4.8,        -2.4
"Line.L16"              ,   1,         9.6,         4.8,         0.0,         0.0,         0.0,         0.0
"Line.L16"              ,   2,        -9.6,        -4.8
"Line.L17"              ,   1,         4.8,         2.4,         0.0,         0.0,         0.0,         0.0
"Line.L17"              ,   2,        -4.8,        -2.4
"Line.L18"              ,   1,        19.2,         9.6,         0.0,         0.0,         0.0,         0.0
"Line.L18"              ,   2,       -19.2,        -9.6
"Line.L19"              ,   1,        53.9,        33.6,         0.0,         0.0,         0.0,         0.0
"Line.L19"              ,   2,       -53.9,       -33.6
"Line.L20"              ,   1,         9.6,         4.8,         0.0,         0.0,         0.0,         0.0
"Line.L20"              ,   2,        -9.6,        -4.8
"Line.L21"              ,   1,         9.6,         4.8,         0.0,         0.0,         0.0,         0.0
"Line.L21"              ,   2,        -9.6,        -4.8
"Line.L22"              ,   1,        44.3,        28.8,         0.0,         0.0,         0.0,         0.0
"Line.L22"              ,   2,       -44.3,       -28.8
"Line.L23"              ,   1,         9.6,         4.8,         0.0,         0.0,         0.0,         0.0
"Line.L23"              ,   2,        -9.6,        -4.8
"Line.L24"              ,   1,        34.7,        24.0,         0.0,         0.0,         0.0,         0.0
"Line.L24"              ,   2,       -34.7,       -24.0
"Line.L25"              ,   1,        19.2,         9.6,         0.0,         0.0,         0.0,         0.0
"Line.L25"              ,   2,       -19.2,        -9.6
"Line.L26"              ,   1,        15.5,        14.4,         0.0,         0.0,         0.0,         0.0
"Line.L26"              ,   2,       -15.5,       -14.4
"Line.L27"              ,   1,         9.6,         4.8,         0.0,         0.0,         0.0,         0.0
"Line.L27"              ,   2,        -9.6,        -4.8
"Line.L28"              ,   1,         9.6,         4.8,         0.0,         0.0,         0.0,         0.0
"Line.L28"              ,   2,        -9.6,        -4.8
"Line.L29"              ,   1,         9.6,         4.8,         0.0,         0.0,         0.0,         0.0
"Line.L29"              ,   2,        -9.6,        -4.8
"Line.L30"              ,   1,        19.2,         9.6,         0.0,         0.0,         0.0,         0.0
"Line.L30"              ,   2,       -19.2,        -9.6
"Line.L31"              ,   1,         9.6,         4.8,         0.0,         0.0,         0.0,         0.0
"Line.L31"              ,   2,        -9.6,        -4.8
"Line.L32"              ,   1,         0.0,        -0.0,         0.0,         0.0,         0.0,         0.0
"Line.L32"              ,   2,         0.0,         0.0
"Line.L33"              ,   1,         4.8,         2.4,         0.0,         0.0,         0.0,         0.0
"Line.L33"              ,   2,        -4.8,        -2.4
"Line.L34"              ,   1,        14.4,         7.2,         0.0,         0.0,         0.0,         0.0
"Line.L34"              ,   2,       -14.4,        -7.2
"Line.L35"              ,   1,        19.2,         9.6,         0.0,         0.0,         0.0,         0.0
"Line.L35"              ,   2,       -19.2,        -9.6
"Line.L36"              ,   1,        82.5,        98.7,         0.0,         0.0,         0.0,         0.0
"Line.L36"              ,   2,       -82.5,       -98.6
"Line.L37"              ,   1,         9.6,         4.8,         0.0,         0.0,         0.0,         0.0
"Line.L37"              ,   2,        -9.6,        -4.8
"Line.L38"              ,   1,         9.6,         4.8,         0.0,         0.0,         0.0,         0.0
"Line.L38"              ,   2,        -9.6,        -4.8
"Line.L39"              ,   1,         4.8,         2.4,         0.0,         0.0,         0.0,         0.0
"Line.L39"              ,   2,        -4.8,        -2.4
"Line.L40"              ,   1,         4.8,         2.4,         0.0,         0.0,         0.0,         0.0
"Line.L40"              ,   2,        -4.8,        -2.4
"Line.L41"              ,   1,        77.7,        96.2,         0.0,         0.0,         0.0,         0.0
"Line.L41"              ,   2,       -77.7,       -96.1
"Line.L42"              ,   1,         9.6,         4.8,         0.0,         0.0,         0.0,         0.0
"Line.L42"              ,   2,        -9.6,        -4.8
"Line.L43"              ,   1,        63.3,        88.9,         0.0,         0.0,         0.0,         0.0
"Line.L43"              ,   2,       -63.2,       -88.9
"Line.L44"              ,   1,         9.6,         4.8,         0.0,         0.0,         0.0,         0.0
"Line.L44"              ,   2,        -9.6,        -4.8
"Line.L45"              ,   1,        53.6,        84.1,         0.0,         0.0,         0.0,         0.0
"Line.L45"              ,   2,       -53.6,       -84.0
"Line.L46"              ,   1,         4.8,         2.4,         0.0,         0.0,         0.0,         0.0
"Line.L46"              ,   2,        -4.8,        -2.4
"Line.L47"              ,   1,       -19.6,        36.0,         0.0,         0.0,         0.0,         0.0
"Line.L47"              ,   2,        19.6,       -36.0
"Line.L48"              ,   1,        48.0,        30.0,         0.0,         0.0,         0.0,         0.0
"Line.L48"              ,   2,       -48.0,       -30.0
"Line.L49"              ,   1,        14.4,         7.2,         0.0,         0.0,         0.0,         0.0
"Line.L49"              ,   2,       -14.4,        -7.2
"Line.L50"              ,   1,         4.8,         2.4,         0.0,         0.0,         0.0,         0.0
"Line.L50"              ,   2,        -4.8,        -2.4
"Line.L51"              ,   1,         0.0,        -0.0,         0.0,         0.0,         0.0,         0.0
"Line.L51"              ,   2,        -0.0,         0.0
"Line.L52"              ,   1,       305.2,        22.6,         0.0,         0.0,         0.0,         0.0
"Line.L52"              ,   2,      -305.0,       -22.2
"Line.L53"              ,   1,       295.4,        17.4,         0.0,         0.0,         0.0,         0.0
"Line.L53"              ,   2,      -295.3,       -17.2
"Line.L54"              ,   1,         9.6,         4.8,         0.0,         0.0,         0.0,         0.0
"Line.L54"              ,   2,        -9.6,        -4.8
"Line.L55"              ,   1,       285.7,        12.4,         0.0,         0.0,         0.0,         0.0
"Line.L55"              ,   2,      -285.4,       -11.8
"Line.L56"              ,   1,         4.8,         2.4,         0.0,         0.0,         0.0,         0.0
"Line.L56"              ,   2,        -4.8,        -2.4
"Line.L57"              ,   1,         2.9,         4.8,         0.0,         0.0,         0.0,         0.0
"Line.L57"              ,   2,        -2.9,        -4.8
"Line.L58"              ,   1,       282.5,         7.0,         0.0,         0.0,         0.0,         0.0
"Line.L58"              ,   2,      -281.8,        -5.8
"Line.L59"              ,   1,         4.8,         2.4,         0.0,         0.0,         0.0,         0.0
"Line.L59"              ,   2,        -4.8,        -2.4
"Line.L60"              ,   1,         0.0,        -0.0,         0.0,         0.0,         0.0,         0.0
"Line.L60"              ,   2,        -0.0,         0.0
"Line.L61"              ,   1,        42.2,        50.3,         0.0,         0.0,         0.0,         0.0
"Line.L61"              ,   2,       -42.2,       -50.3
"Line.L62"              ,   1,        32.6,        45.5,         0.0,         0.0,         0.0,         0.0
"Line.L62"              ,   2,       -32.6,       -45.5
"Line.L63"              ,   1,        23.0,        40.7,         0.0,         0.0,         0.0,         0.0
"Line.L63"              ,   2,       -23.0,       -40.8
"Line.L64"              ,   1,         5.0,        32.4,         0.0,         0.0,         0.0,         0.0
"Line.L64"              ,   2,        -4.9,       -32.4
"Line.L65"              ,   1,        18.0,         8.4,         0.0,         0.0,         0.0,         0.0
"Line.L65"              ,   2,       -18.0,        -8.4
"Line.L66"              ,   1,        28.8,        14.4,         0.0,         0.0,         0.0,         0.0
"Line.L66"              ,   2,       -28.8,       -14.4
"Line.L67"              ,   1,       113.4,      -114.8,         0.0,         0.0,         0.0,         0.0
"Line.L67"              ,   2,      -113.3,       115.0
"Line.L68"              ,   1,        92.4,        53.0,         0.0,         0.0,         0.0,         0.0
"Line.L68"              ,   2,       -92.4,       -52.9
"Line.L69"              ,   1,        24.0,        12.0,         0.0,         0.0,         0.0,         0.0
"Line.L69"              ,   2,       -24.0,       -12.0
"Line.L70"              ,   1,        14.4,         7.2,         0.0,         0.0,         0.0,         0.0
"Line.L70"              ,   2,       -14.4,        -7.2
"Line.L71"              ,   1,         9.6,         4.8,         0.0,         0.0,         0.0,         0.0
"Line.L71"              ,   2,        -9.6,        -4.8
"Line.L72"              ,   1,        28.8,        14.4,         0.0,         0.0,         0.0,         0.0
"Line.L72"              ,   2,       -28.8,       -14.4
"Line.L73"              ,   1,        84.5,      -129.4,         0.0,         0.0,         0.0,         0.0
"Line.L73"              ,   2,       -84.4,       129.5
"Line.L74"              ,   1,        19.2,         9.6,         0.0,         0.0,         0.0,         0.0
"Line.L74"              ,   2,       -19.2,        -9.6
"Line.L75"              ,   1,         9.6,         4.8,         0.0,         0.0,         0.0,         0.0
"Line.L75"              ,   2,        -9.6,        -4.8
"Line.L76"              ,   1,        58.2,      -157.6,         0.0,         0.0,         0.0,         0.0
"Line.L76"              ,   2,       -58.0,       157.9
"Line.L77"              ,   1,        49.1,       -15.1,         0.0,         0.0,         0.0,         0.0
"Line.L77"              ,   2,       -49.1,        15.1
"Line.L78"              ,   1,        48.4,      -162.7,         0.0,         0.0,         0.0,         0.0
"Line.L78"              ,   2,       -48.4,       162.7
"Line.L79"              ,   1,         9.6,         4.8,         0.0,         0.0,         0.0,         0.0
"Line.L79"              ,   2,        -9.6,        -4.8
"Line.L80"              ,   1,        38.8,      -167.5,         0.0,         0.0,         0.0,         0.0
"Line.L80"              ,   2,       -38.6,       167.8
"Line.L81"              ,   1,        29.0,      -172.6,         0.0,         0.0,         0.0,         0.0
"Line.L81"              ,   2,       -29.0,       172.8
"Line.L82"              ,   1,        14.6,      -180.0,         0.0,         0.0,         0.0,         0.0
"Line.L82"              ,   2,       -14.5,       180.1
"Line.L83"              ,   1,        14.4,         7.2,         0.0,         0.0,         0.0,         0.0
"Line.L83"              ,   2,       -14.4,        -7.2
"Line.L84"              ,   1,         4.9,      -184.9,         0.0,         0.0,         0.0,         0.0
"Line.L84"              ,   2,        -4.8,       185.1
"Line.L85"              ,   1,         9.6,         4.8,         0.0,         0.0,         0.0,         0.0
"Line.L85"              ,   2,        -9.6,        -4.8
"Line.L86"              ,   1,        44.3,       -17.5,         0.0,         0.0,         0.0,         0.0
"Line.L86"              ,   2,       -44.3,        17.5
"Line.L87"              ,   1,         9.6,       -10.6,         0.0,         0.0,         0.0,         0.0
"Line.L87"              ,   2,        -9.6,        10.6
"Line.L88"              ,   1,        38.4,       -11.7,         0.0,         0.0,         0.0,         0.0
"Line.L88"              ,   2,       -38.4,        11.7
"Line.L89"              ,   1,         9.6,       -10.6,         0.0,         0.0,         0.0,         0.0
"Line.L89"              ,   2,        -9.6,        10.6
"Line.L90"              ,   1,        28.8,        -1.0,         0.0,         0.0,         0.0,         0.0
"Line.L90"              ,   2,       -28.8,         1.0
"Line.L91"              ,   1,         9.6,       -10.6,         0.0,         0.0,         0.0,         0.0
"Line.L91"              ,   2,        -9.6,        10.6
"Line.L92"              ,   1,        19.2,         9.6,         0.0,         0.0,         0.0,         0.0
"Line.L92"              ,   2,       -19.2,        -9.6
"Line.L93"              ,   1,         9.6,         4.8,         0.0,         0.0,         0.0,         0.0
"Line.L93"              ,   2,        -9.6,        -4.8
"Line.L94"              ,   1,         9.6,         4.8,         0.0,         0.0,         0.0,         0.0
"Line.L94"              ,   2,        -9.6,        -4.8
"Line.L95"              ,   1,         4.8,         2.4,         0.0,         0.0,         0.0,         0.0
"Line.L95"              ,   2,        -4.8,        -2.4
"Line.L96"              ,   1,        15.5,        14.4,         0.0,         0.0,         0.0,         0.0
"Line.L96"              ,   2,       -15.5,       -14.4
"Line.L97"              ,   1,         5.9,         9.6,         0.0,         0.0,         0.0,         0.0
"Line.L97"              ,   2,        -5.9,        -9.6
"Line.L98"              ,   1,        -3.7,         4.8,         0.0,         0.0,         0.0,         0.0
"Line.L98"              ,   2,         3.7,        -4.8
"Line.L99"              ,   1,         0.0,        -0.0,         0.0,         0.0,         0.0,         0.0
"Line.L99"              ,   2,         0.0,        -0.0
"Line.L118"             ,   1,        76.9,        38.5,         0.0,         0.0,         0.0,         0.0
"Line.L118"             ,   2,       -76.9,       -38.5
"Line.L100"             ,   1,        24.0,        12.0,         0.0,         0.0,         0.0,         0.0
"Line.L100"             ,   2,       -24.0,       -12.0
"Line.L101"             ,   1,        52.9,        26.5,         0.0,         0.0,         0.0,         0.0
"Line.L101"             ,   2,       -52.9,       -26.4
"Line.L102"             ,   1,        19.2,         9.6,         0.0,         0.0,         0.0,         0.0
"Line.L102"             ,   2,       -19.2,        -9.6
"Line.L103"             ,   1,         9.6,         4.8,         0.0,         0.0,         0.0,         0.0
"Line.L103"             ,   2,        -9.6,        -4.8
"Line.L104"             ,   1,        19.2,         9.6,         0.0,         0.0,         0.0,         0.0
"Line.L104"             ,   2,       -19.2,        -9.6
"Line.L105"             ,   1,        33.7,        16.8,         0.0,         0.0,         0.0,         0.0
"Line.L105"             ,   2,       -33.7,       -16.8
"Line.L106"             ,   1,         9.6,         4.8,         0.0,         0.0,         0.0,         0.0
"Line.L106"             ,   2,        -9.6,        -4.8
"Line.L107"             ,   1,        33.7,        16.8,         0.0,         0.0,         0.0,         0.0
"Line.L107"             ,   2,       -33.6,       -16.8
"Line.L108"             ,   1,         0.0,        -0.0,         0.0,         0.0,         0.0,         0.0
"Line.L108"             ,   2,         0.0,         0.0
"Line.L109"             ,   1,        24.0,        12.0,         0.0,         0.0,         0.0,         0.0
"Line.L109"             ,   2,       -24.0,       -12.0
"Line.L110"             ,   1,         4.8,         2.4,         0.0,         0.0,         0.0,         0.0
"Line.L110"             ,   2,        -4.8,        -2.4
"Line.L111"             ,   1,        19.2,         9.6,         0.0,         0.0,         0.0,         0.0
"Line.L111"             ,   2,       -19.2,        -9.6
"Line.L112"             ,   1,        14.4,         7.2,         0.0,         0.0,         0.0,         0.0
"Line.L112"             ,   2,       -14.4,        -7.2
"Line.L113"             ,   1,         4.8,         2.4,         0.0,         0.0,         0.0,         0.0
"Line.L113"             ,   2,        -4.8,        -2.4
"Line.L114"             ,   1,       111.5,       113.3,         0.0,         0.0,         0.0,         0.0
"Line.L114"             ,   2,      -111.4,      -113.1
"Line.L116"             ,   1,       315.2,        28.3,         0.0,         0.0,         0.0,         0.0
"Line.L116"             ,   2,      -314.8,       -27.4
"Line.L117"             ,   1,       234.8,       -47.0,         0.0,         0.0,         0.0,         0.0
"Line.L117"             ,   2,      -234.6,        47.4
"Line.SW1"              ,   1,       587.2,       242.6,         0.0,         0.0,         0.0,         0.0
"Line.SW1"              ,   2,      -587.2,      -242.6
"Line.SW2"              ,   1,       315.2,        28.3,         0.0,         0.0,         0.0,         0.0
"Line.SW2"              ,   2,      -315.2,       -28.3
"Line.SW3"              ,   1,       111.5,       113.3,         0.0,         0.0,         0.0,         0.0
"Line.SW3"              ,   2,      -111.5,      -113.3
"Line.SW4"              ,   1,       234.8,       -47.0,         0.0,         0.0,         0.0,         0.0
"Line.SW4"              ,   2,      -234.8,        47.0
"Line.SW5"              ,   1,        76.9,        38.5,         0.0,         0.0,         0.0,         0.0
"Line.SW5"              ,   2,       -76.9,       -38.5
"Line.XFM1"             ,   1,        -0.0,         0.0,         0.0,         0.0,         0.0,         0.0
"Line.XFM1"             ,   2,         0.0,        -0.0
"Capacitor.C83"         ,   1,         0.0,      -187.5,         0.0,         0.0,         0.0,         0.0
"Capacitor.C83"         ,   2,         0.0,         0.0
"Capacitor.C88"         ,   1,         0.0,       -15.4,         0.0,         0.0,         0.0,         0.0
"Capacitor.C88"         ,   2,         0.0,         0.0
"Capacitor.C90"         ,   1,         0.0,       -15.4,         0.0,         0.0,         0.0,         0.0
"Capacitor.C90"         ,   2,         0.0,         0.0
"Capacitor.C92"         ,   1,        -0.0,       -15.4,         0.0,         0.0,         0.0,         0.0
"Capacitor.C92"         ,   2,         0.0,         0.0
"Transformer.REG1A"     ,   1,       587.2,       242.6,         0.0,         0.0,         0.0,         0.0
"Transformer.REG1A"     ,   2,      -587.2,      -242.6
"Transformer.REG2A"     ,   1,        14.4,         7.2,         0.0,         0.0,         0.0,         0.0
"Transformer.REG2A"     ,   2,       -14.4,        -7.2
"Transformer.REG3A"     ,   1,        19.2,         9.6,         0.0,         0.0,         0.0,         0.0
"Transformer.REG3A"     ,   2,       -19.2,        -9.6
"Transformer.REG4A"     ,   1,       234.8,       -47.0,         0.0,         0.0,         0.0,         0.0
"Transformer.REG4A"     ,   2,      -234.8,        47.0
"Load.S1"               ,   1,         9.6,         4.8
"Load.S2"               ,   1,         4.8,         2.4
"Load.S4"               ,   1,         9.6,         4.8
"Load.S5"               ,   1,         4.8,         2.4
"Load.S6"               ,   1,         9.6,         4.8
"Load.S7"               ,   1,         4.8,         2.4
"Load.S9"               ,   1,         9.6,         4.8
"Load.S10"              ,   1,         4.8,         2.4
"Load.S11"              ,   1,         9.6,         4.8
"Load.S12"              ,   1,         4.8,         2.4
"Load.S16"              ,   1,         9.6,         4.8
"Load.S17"              ,   1,         4.8,         2.4
"Load.S19"              ,   1,         9.6,         4.8
"Load.S20"              ,   1,         9.6,         4.8
"Load.S22"              ,   1,         9.6,         4.8
"Load.S24"              ,   1,         9.6,         4.8
"Load.S28"              ,   1,         9.6,         4.8
"Load.S29"              ,   1,         9.6,         4.8
"Load.S30"              ,   1,         9.6,         4.8
"Load.S31"              ,   1,         4.8,         2.4
"Load.S32"              ,   1,         4.8,         2.4
"Load.S33"              ,   1,         9.6,         4.8
"Load.S34"              ,   1,         9.6,         4.8
"Load.S35"              ,   1,         9.6,         4.8
"Load.S37"              ,   1,         9.6,         4.8
"Load.S38"              ,   1,         4.8,         2.4
"Load.S39"              ,   1,         4.8,         2.4
"Load.S41"              ,   1,         4.8,         2.4
"Load.S42"              ,   1,         4.8,         2.4
"Load.S43"              ,   1,         9.6,         4.8
"Load.S45"              ,   1,         4.8,         2.4
"Load.S46"              ,   1,         4.8,         2.4
"Load.S47"              ,   1,        25.2,        18.0
"Load.S48"              ,   1,        50.4,        36.0
"Load.S49"              ,   1,        33.6,        22.8
"Load.S50"              ,   1,         9.6,         4.8
"Load.S51"              ,   1,         4.8,         2.4
"Load.S52"              ,   1,         9.6,         4.8
"Load.S53"              ,   1,         9.6,         4.8
"Load.S55"              ,   1,         4.8,         2.4
"Load.S56"              ,   1,         4.8,         2.4
"Load.S58"              ,   1,         4.8,         2.4
"Load.S59"              ,   1,         4.8,         2.4
"Load.S60"              ,   1,         4.8,         2.4
"Load.S62"              ,   1,         9.6,         4.8
"Load.S63"              ,   1,         9.6,         4.8
"Load.S64"              ,   1,        18.0,         8.4
"Load.S65"              ,   1,        33.6,        24.0
"Load.S66"              ,   1,        18.0,         8.4
"Load.S68"              ,   1,         4.8,         2.4
"Load.S69"              ,   1,         9.6,         4.8
"Load.S70"              ,   1,         4.8,         2.4
"Load.S71"              ,   1,         9.6,         4.8
"Load.S73"              ,   1,         9.6,         4.8
"Load.S74"              ,   1,         9.6,         4.8
"Load.S75"              ,   1,         9.6,         4.8
"Load.S76"              ,   1,        58.8,        43.2
"Load.S77"              ,   1,         9.6,         4.8
"Load.S79"              ,   1,         9.6,         4.8
"Load.S80"              ,   1,         9.6,         4.8
"Load.S82"              ,   1,         9.6,         4.8
"Load.S83"              ,   1,         4.8,         2.4
"Load.S84"              ,   1,         4.8,         2.4
"Load.S85"              ,   1,         9.6,         4.8
"Load.S86"              ,   1,         4.8,         2.4
"Load.S87"              ,   1,         9.6,         4.8
"Load.S88"              ,   1,         9.6,         4.8
"Load.S90"              ,   1,         9.6,         4.8
"Load.S92"              ,   1,         9.6,         4.8
"Load.S94"              ,   1,         9.6,         4.8
"Load.S95"              ,   1,         4.8,         2.4
"Load.S96"              ,   1,         4.8,         2.4
"Load.S98"              ,   1,         9.6,         4.8
"Load.S99"              ,   1,         9.6,         4.8
"Load.S100"             ,   1,         9.6,         4.8
"Load.S102"             ,   1,         4.8,         2.4
"Load.S103"             ,   1,         9.6,         4.8
"Load.S104"             ,   1,         9.6,         4.8
"Load.S106"             ,   1,         9.6,         4.8
"Load.S107"             ,   1,         9.6,         4.8
"Load.S109"             ,   1,         9.6,         4.8
"Load.S111"             ,   1,         4.8,         2.4
"Load.S112"             ,   1,         4.8,         2.4
"Load.S113"             ,   1,         9.6,         4.8
"Load.S114"             ,   1,         4.8,         2.4
"PVSystem.9"            ,   1,       -13.3,        -0.0
"PVSystem.28"           ,   1,       -13.3,        -0.0
"PVSystem.48"           ,   1,       -70.0,        -0.0
"PVSystem.58"           ,   1,        -6.7,        -0.0
"PVSystem.65"           ,   1,       -46.7,        -0.0
"PVSystem.76"           ,   1,       -81.7,        -0.0
"PVSystem.87"           ,   1,       -13.3,        -0.0
"PVSystem.100"          ,   1,       -13.3,        -0.0
"Storage.BATTERY9"      ,   1,         0.0,         0.0
"Storage.BATTERY28"     ,   1,         0.0,         0.0
"Storage.BATTERY48"     ,   1,         0.0,         0.0
"Storage.BATTERY58"     ,   1,         0.0,         0.0
"Storage.BATTERY65"     ,   1,         0.0,         0.0
"Storage.BATTERY76"     ,   1,         0.0,         0.0
"Storage.BATTERY87"     ,   1,         0.0,         0.0
"Storage.BATTERY100"    ,   1,         0.0,         0.0
